Circuit: *** SPICE deck for cell MUX16_1{lay} from library MUX16_1

Warning: Multiple definitions of model "p" Type: BSIM3
Warning: Multiple definitions of model "n" Type: BSIM3
Ignoring BSIM parameter XL
Ignoring BSIM parameter XW
Ignoring BSIM parameter XL
Ignoring BSIM parameter XW
Vi12: Removing PWL point (1e-007,0)
Vi8: Removing PWL point (5e-008,5)
Vi7: Removing PWL point (1.6e-007,5)
Vi6: Removing PWL point (1e-007,0)
Vi0: Removing PWL point (6e-008,5)
Direct Newton iteration for .op point succeeded.

Date: Sun Dec 21 22:34:19 2025
Total elapsed time: 0.656 seconds.

tnom = 27
temp = 27
method = modified trap
totiter = 5573
traniter = 5558
tranpoints = 2054
accept = 1767
rejected = 287
matrix size = 72
fillins = 0
solver = Normal
Thread vector: 294.3/112.6[9] 38.5/10.6[9] 8.7/3.5[7] 0.7/8.8[1]  2592/500
Matrix Compiler1: 5,51 KB object code size  3.2/1.3/[0.8]
Matrix Compiler2: 9,33 KB object code size  1.6/1.9/[0.9]


