Circuit: *** SPICE deck for cell 8Bit_NAND{lay} from library 8Bit_NAND

Warning: Multiple definitions of model "p" Type: BSIM3
Warning: Multiple definitions of model "n" Type: BSIM3
Ignoring BSIM parameter XL
Ignoring BSIM parameter XW
Ignoring BSIM parameter XL
Ignoring BSIM parameter XW
Direct Newton iteration for .op point succeeded.

Date: Tue Dec 23 21:28:17 2025
Total elapsed time: 0.207 seconds.

tnom = 27
temp = 27
method = modified trap
totiter = 2405
traniter = 2398
tranpoints = 1090
accept = 1081
rejected = 9
matrix size = 50
fillins = 0
solver = Normal
Thread vector: 73.7/28.5[3] 5.3/3.3[3] 1.5/1.6[1] 0.3/0.5[1]  2592/500
Matrix Compiler1:     132 opcodes  0.6/[0.2]/0.2
Matrix Compiler2: off  [0.3]/0.4/0.3


