Circuit: *** SPICE deck for cell 8Bit_NOR{lay} from library 8Bit_NOR

Warning: Multiple definitions of model "p" Type: BSIM3
Warning: Multiple definitions of model "n" Type: BSIM3
Ignoring BSIM parameter XL
Ignoring BSIM parameter XW
Ignoring BSIM parameter XL
Ignoring BSIM parameter XW
Direct Newton iteration for .op point succeeded.

Date: Tue Dec 23 21:29:06 2025
Total elapsed time: 0.194 seconds.

tnom = 27
temp = 27
method = modified trap
totiter = 2352
traniter = 2344
tranpoints = 1086
accept = 1079
rejected = 7
matrix size = 50
fillins = 0
solver = Normal
Thread vector: 69.6/41.6[3] 6.1/3.7[3] 2.0/1.5[2] 0.2/0.7[1]  2592/500
Matrix Compiler1: 2,20 KB object code size  0.7/0.3/[0.2]
Matrix Compiler2: 4,59 KB object code size  0.4/0.6/[0.3]


