Circuit: *** SPICE deck for cell 8BitSUB_COMP{lay} from library 8BitSUB_COMP

Warning: Multiple definitions of model "p" Type: BSIM3
Warning: Multiple definitions of model "n" Type: BSIM3
Ignoring BSIM parameter XL
Ignoring BSIM parameter XW
Ignoring BSIM parameter XL
Ignoring BSIM parameter XW
Va7: Removing PWL point (2e-008,0)
Vb6: Removing PWL point (2e-008,0)
Va6: Removing PWL point (2e-008,0)
Vb5: Removing PWL point (2e-008,0)
Va3: Removing PWL point (2e-008,0)
Va2: Removing PWL point (2e-008,0)
Vb1: Removing PWL point (2e-008,0)
Direct Newton iteration for .op point succeeded.

Date: Tue Dec 30 21:21:30 2025
Total elapsed time: 1.215 seconds.

tnom = 27
temp = 27
method = modified trap
totiter = 3711
traniter = 3679
tranpoints = 1524
accept = 1358
rejected = 166
matrix size = 235
fillins = 416
solver = Normal
Thread vector: 1072.7/208.7[12] 103.6/27.2[12] 28.7/12.3[7] 1.2/6.1[1]  2592/500
Matrix Compiler1:    3005 opcodes  11.7/[6.6]/7.7
Matrix Compiler2: 37,4 KB object code size  4.9/5.2/[3.3]


