Circuit: *** SPICE deck for cell 8Bit_AND{lay} from library 8Bit_AND

Warning: Multiple definitions of model "p" Type: BSIM3
Warning: Multiple definitions of model "n" Type: BSIM3
Ignoring BSIM parameter XL
Ignoring BSIM parameter XW
Ignoring BSIM parameter XL
Ignoring BSIM parameter XW
Direct Newton iteration for .op point succeeded.

Date: Wed Dec 24 17:22:15 2025
Total elapsed time: 0.357 seconds.

tnom = 27
temp = 27
method = modified trap
totiter = 2552
traniter = 2542
tranpoints = 1141
accept = 1112
rejected = 29
matrix size = 58
fillins = 0
solver = Normal
Thread vector: 100.5/39.0[4] 8.2/3.6[4] 2.2/2.5[1] 0.4/0.6[1]  2592/500
Matrix Compiler1:     164 opcodes  0.6/[0.2]/0.3
Matrix Compiler2: off  [0.3]/0.5/0.5


