Circuit: *** SPICE deck for cell HalfAdder{lay} from library HalfAdder

Warning: Multiple definitions of model "p" Type: BSIM3
Warning: Multiple definitions of model "n" Type: BSIM3
Ignoring BSIM parameter XL
Ignoring BSIM parameter XW
Ignoring BSIM parameter XL
Ignoring BSIM parameter XW
Direct Newton iteration for .op point succeeded.

Date: Mon Dec 15 22:55:56 2025
Total elapsed time: 0.222 seconds.

tnom = 27
temp = 27
method = modified trap
totiter = 2736
traniter = 2725
tranpoints = 1177
accept = 1131
rejected = 46
matrix size = 15
fillins = 0
solver = Normal
Matrix Compiler1: off  [0.3]/0.3/0.3
Matrix Compiler2: 1,65 KB object code size  0.3/0.2/[0.2]


