Circuit: *** SPICE deck for cell left_shift{lay} from library left_shift

Warning: Multiple definitions of model "p" Type: BSIM3
Warning: Multiple definitions of model "n" Type: BSIM3
Ignoring BSIM parameter XL
Ignoring BSIM parameter XW
Ignoring BSIM parameter XL
Ignoring BSIM parameter XW
Vin6: Removing PWL point (2e-008,0)
Vin4: Removing PWL point (2e-008,0)
Vin1: Removing PWL point (2e-008,0)
WARNING: Less than two connections to node IN7.  This node is used by VIN7.
Direct Newton iteration for .op point succeeded.

Date: Tue Dec 30 21:39:10 2025
Total elapsed time: 0.185 seconds.

tnom = 27
temp = 27
method = modified trap
totiter = 2213
traniter = 2200
tranpoints = 1072
accept = 1063
rejected = 9
matrix size = 34
fillins = 0
solver = Normal
Thread vector: 71.8/30.2[3] 6.1/2.9[3] 2.4/1.2[3] 0.3/0.6[1]  2592/500
Matrix Compiler1:      80 opcodes  0.4/[0.2]/0.2
Matrix Compiler2: off  [0.2]/0.3/0.3


