Circuit: *** SPICE deck for cell NAND{lay} from library NandGate

Warning: Multiple definitions of model "p" Type: BSIM3
Warning: Multiple definitions of model "n" Type: BSIM3
Ignoring BSIM parameter XL
Ignoring BSIM parameter XW
Ignoring BSIM parameter XL
Ignoring BSIM parameter XW
Direct Newton iteration for .op point succeeded.

tf=1.93258e-009 FROM 1.45668e-008 TO 1.64994e-008
tr=2.15011e-009 FROM 5.47119e-008 TO 5.6862e-008


Date: Fri Dec 12 19:07:45 2025
Total elapsed time: 0.197 seconds.

tnom = 27
temp = 27
method = modified trap
totiter = 2404
traniter = 2397
tranpoints = 1090
accept = 1081
rejected = 9
matrix size = 8
fillins = 0
solver = Normal
Matrix Compiler1: 300 bayt object code size  0.1/0.1/[0.1]
Matrix Compiler2: off  [0.1]/0.2/0.1


