Circuit: *** SPICE deck for cell FullAdder{lay} from library FullAdder

Warning: Multiple definitions of model "p" Type: BSIM3
Warning: Multiple definitions of model "n" Type: BSIM3
Ignoring BSIM parameter XL
Ignoring BSIM parameter XW
Ignoring BSIM parameter XL
Ignoring BSIM parameter XW
Vcin: Removing PWL point (1e-007,0)
Direct Newton iteration for .op point succeeded.

Date: Tue Dec 16 22:04:09 2025
Total elapsed time: 0.263 seconds.

tnom = 27
temp = 27
method = modified trap
totiter = 3745
traniter = 3715
tranpoints = 1442
accept = 1301
rejected = 141
matrix size = 29
fillins = 4
solver = Normal
Thread vector: 97.6/26.9[4] 10.7/3.1[4] 2.6/1.1[4] 0.1/0.5[1]  2592/500
Matrix Compiler1: 2,98 KB object code size  0.7/0.4/[0.4]
Matrix Compiler2: 3,60 KB object code size  0.4/0.5/[0.3]


