Circuit: *** SPICE deck for cell 8Bit_OR{lay} from library 8Bit_OR

Warning: Multiple definitions of model "p" Type: BSIM3
Warning: Multiple definitions of model "n" Type: BSIM3
Ignoring BSIM parameter XL
Ignoring BSIM parameter XW
Ignoring BSIM parameter XL
Ignoring BSIM parameter XW
Direct Newton iteration for .op point succeeded.

Date: Wed Dec 24 18:10:41 2025
Total elapsed time: 0.285 seconds.

tnom = 27
temp = 27
method = modified trap
totiter = 2459
traniter = 2445
tranpoints = 1123
accept = 1101
rejected = 22
matrix size = 58
fillins = 0
solver = Normal
Thread vector: 90.1/43.4[4] 9.4/3.3[4] 2.6/1.4[4] 0.2/0.6[1]  2592/500
Matrix Compiler1: 2,73 KB object code size  0.7/0.4/[0.3]
Matrix Compiler2: 5,42 KB object code size  0.4/0.7/[0.3]


