Circuit: *** SPICE deck for cell MUX2_1{lay} from library MUX2_1

Warning: Multiple definitions of model "p" Type: BSIM3
Warning: Multiple definitions of model "n" Type: BSIM3
Ignoring BSIM parameter XL
Ignoring BSIM parameter XW
Ignoring BSIM parameter XL
Ignoring BSIM parameter XW
Direct Newton iteration for .op point succeeded.

Date: Wed Dec 17 22:45:29 2025
Total elapsed time: 0.169 seconds.

tnom = 27
temp = 27
method = modified trap
totiter = 2330
traniter = 2316
tranpoints = 1107
accept = 1095
rejected = 12
matrix size = 10
fillins = 0
solver = Normal
Matrix Compiler1: 454 bayt object code size  0.2/0.1/[0.1]
Matrix Compiler2: off  [0.1]/0.2/0.1


