Circuit: *** SPICE deck for cell MUX4_1{lay} from library MUX4_1

Warning: Multiple definitions of model "p" Type: BSIM3
Warning: Multiple definitions of model "n" Type: BSIM3
Ignoring BSIM parameter XL
Ignoring BSIM parameter XW
Ignoring BSIM parameter XL
Ignoring BSIM parameter XW
Vi0: Removing PWL point (6e-008,5)
Direct Newton iteration for .op point succeeded.

Date: Sat Dec 20 18:45:11 2025
Total elapsed time: 0.290 seconds.

tnom = 27
temp = 27
method = modified trap
totiter = 3040
traniter = 3025
tranpoints = 1322
accept = 1255
rejected = 67
matrix size = 20
fillins = 0
solver = Normal
Matrix Compiler1: 1,14 KB object code size  0.4/0.1/[0.1]
Matrix Compiler2: 2,20 KB object code size  0.3/0.3/[0.2]


