Circuit: *** SPICE deck for cell a_left_shift{sch} from library a_left_shift

Warning: Multiple definitions of model "p" Type: BSIM3
Warning: Multiple definitions of model "n" Type: BSIM3
Ignoring BSIM parameter XL
Ignoring BSIM parameter XW
Ignoring BSIM parameter XL
Ignoring BSIM parameter XW
Vin6: Removing PWL point (2e-008,0)
Vin4: Removing PWL point (2e-008,0)
Vin1: Removing PWL point (2e-008,0)
WARNING: Less than two connections to node IN6.  This node is used by VIN6.
Warning: Pd = 0 is less than W.
Warning: Ps = 0 is less than W.
Warning: Pd = 0 is less than W.
Warning: Ps = 0 is less than W.
Direct Newton iteration for .op point succeeded.

Date: Sat Dec 27 15:58:19 2025
Total elapsed time: 0.232 seconds.

tnom = 27
temp = 27
method = modified trap
totiter = 2263
traniter = 2249
tranpoints = 1056
accept = 1055
rejected = 1
matrix size = 34
fillins = 0
solver = Normal
Thread vector: 58.8/21.4[3] 5.5/2.9[3] 1.6/1.5[1] 0.2/0.5[1]  2592/500
Matrix Compiler1: 1,28 KB object code size  0.4/0.2/[0.2]
Matrix Compiler2: 2,71 KB object code size  0.2/0.4/[0.2]


