Circuit: *** SPICE deck for cell 1Bit_COMP{lay} from library 1Bit_COMP

Warning: Multiple definitions of model "p" Type: BSIM3
Warning: Multiple definitions of model "n" Type: BSIM3
Ignoring BSIM parameter XL
Ignoring BSIM parameter XW
Ignoring BSIM parameter XL
Ignoring BSIM parameter XW
Direct Newton iteration for .op point succeeded.


Measurement "tf" FAIL'ed

Measurement "tr" FAIL'ed


Date: Wed Dec 24 19:05:08 2025
Total elapsed time: 0.214 seconds.

tnom = 27
temp = 27
method = modified trap
totiter = 2950
traniter = 2930
tranpoints = 1223
accept = 1164
rejected = 59
matrix size = 16
fillins = 0
solver = Normal
Thread vector: 34.6/27.6[2] 5.0/2.8[2] 1.0/0.8[2] 0.2/0.6[1]  2592/500
Matrix Compiler1: 1,08 KB object code size  0.3/0.1/[0.1]
Matrix Compiler2: 1,65 KB object code size  0.2/0.2/[0.2]


