Circuit: *** SPICE deck for cell 8Bit_COMP{lay} from library 8Bit_COMP

Warning: Multiple definitions of model "p" Type: BSIM3
Warning: Multiple definitions of model "n" Type: BSIM3
Ignoring BSIM parameter XL
Ignoring BSIM parameter XW
Ignoring BSIM parameter XL
Ignoring BSIM parameter XW
Direct Newton iteration for .op point succeeded.

Date: Wed Dec 24 20:20:11 2025
Total elapsed time: 0.512 seconds.

tnom = 27
temp = 27
method = modified trap
totiter = 2964
traniter = 2944
tranpoints = 1223
accept = 1164
rejected = 59
matrix size = 114
fillins = 0
solver = Normal

