Circuit: *** SPICE deck for cell 8BitALU{sch} from library 8Bit_ALU

Warning: Multiple definitions of model "p" Type: BSIM3
Warning: Multiple definitions of model "n" Type: BSIM3
Ignoring BSIM parameter XL
Ignoring BSIM parameter XW
Ignoring BSIM parameter XL
Ignoring BSIM parameter XW
Vb7: Removing PWL point (2e-008,0)
Va7: Removing PWL point (2e-008,0)
Vb6: Removing PWL point (2e-008,0)
Vb5: Removing PWL point (2e-008,0)
Va5: Removing PWL point (2e-008,0)
Vb4: Removing PWL point (2e-008,0)
Va4: Removing PWL point (2e-008,0)
Vb3: Removing PWL point (2e-008,0)
Vb1: Removing PWL point (2e-008,0)
Va0: Removing PWL point (2e-008,0)
Warning: Pd = 0 is less than W.
Warning: Ps = 0 is less than W.
Warning: Pd = 0 is less than W.
Warning: Ps = 0 is less than W.
Early termination of direct N-R iteration.
Direct Newton iteration failed to find .op point.  (Use ".option noopiter" to skip.)
Starting Gmin stepping
Gmin = 10
Gmin = 1.07374
Gmin = 0.115292
Gmin = 0.0123794
Gmin = 0.00132923
Gmin = 0.000142725
Gmin = 1.5325e-005
Gmin = 1.6455e-006
Gmin = 1.76685e-007
Gmin = 1.89714e-008
Gmin = 2.03704e-009
Gmin = 2.18725e-010
Gmin = 2.34854e-011
Gmin = 2.52173e-012
Gmin = 2.70769e-013
Gmin = 0
Gmin stepping succeeded in finding the operating point.

Ignoring empty pin current: Ix(a_left_s@0:in7)
Ignoring empty pin current: Ix(a_right_@0:in0)
Ignoring empty pin current: Ix(left_shi@2:in7)
Ignoring empty pin current: Ix(right_sh@0:in0)
Ignoring empty pin current: Ix(a_left_s@0:in7)
Ignoring empty pin current: Ix(a_right_@0:in0)
Ignoring empty pin current: Ix(left_shi@2:in7)
Ignoring empty pin current: Ix(right_sh@0:in0)

Date: Thu Jan 01 21:04:50 2026
Total elapsed time: 5.729 seconds.

tnom = 27
temp = 27
method = modified trap
totiter = 4686
traniter = 4282
tranpoints = 1628
accept = 1441
rejected = 187
matrix size = 891
fillins = 2268
solver = Normal
Thread vector: 3331.5/667.7[12] 483.2/142.5[12] 227.7/106.7[7] 12.6/13.1[1]  2592/500
Matrix Compiler1:   17453 opcodes  106.4/[42.3]/52.9
Matrix Compiler2: 173 KB object code size  66.0/38.0/[33.0]


