Circuit: *** SPICE deck for cell right_shift{sch} from library right_shift

Warning: Multiple definitions of model "p" Type: BSIM3
Warning: Multiple definitions of model "n" Type: BSIM3
Ignoring BSIM parameter XL
Ignoring BSIM parameter XW
Ignoring BSIM parameter XL
Ignoring BSIM parameter XW
Vin6: Removing PWL point (2e-008,0)
Vin4: Removing PWL point (2e-008,0)
Vin1: Removing PWL point (2e-008,0)
WARNING: Less than two connections to node IN0.  This node is used by VIN0.
Warning: Pd = 0 is less than W.
Warning: Ps = 0 is less than W.
Warning: Pd = 0 is less than W.
Warning: Ps = 0 is less than W.
Direct Newton iteration for .op point succeeded.

Date: Sat Dec 27 16:07:29 2025
Total elapsed time: 0.184 seconds.

tnom = 27
temp = 27
method = modified trap
totiter = 2263
traniter = 2249
tranpoints = 1056
accept = 1055
rejected = 1
matrix size = 34
fillins = 0
solver = Normal
Thread vector: 48.6/31.5[3] 6.0/2.8[3] 1.7/1.5[2] 0.2/0.7[1]  2592/500
Matrix Compiler1:      80 opcodes  0.4/[0.2]/0.2
Matrix Compiler2: off  [0.2]/0.4/0.3


